Index: include/defaults.h
--- include/defaults.h.orig
+++ include/defaults.h
@@ -48,16 +48,21 @@
  * AUTOMODPATH = directory for autoloaded modules
  */
 
+/* users */
+#ifndef IRCD_USER
+#define IRCD_USER   "_ircd-hybrid"
+#endif
+
 /* dirs */
 #define DPATH        PREFIX
 #define BINPATH      PREFIX "/bin/"
 #define MODPATH      LIBDIR "/" PACKAGE "/modules/"
 #define HPATH        DATADIR "/" PACKAGE "/help"
 #define AUTOMODPATH  MODPATH "/autoload/"
-#define ETCPATH      SYSCONFDIR
-#define LIBPATH      LOCALSTATEDIR "/lib"
-#define LOGPATH      LOCALSTATEDIR "/log"
-#define RUNPATH      LOCALSTATEDIR "/run"
+#define ETCPATH      SYSCONFDIR "/ircd-hybrid"
+#define LIBPATH      LOCALSTATEDIR "/db/ircd-hybrid"
+#define LOGPATH      LOCALSTATEDIR "/log/ircd-hybrid"
+#define RUNPATH      LOCALSTATEDIR "/run/ircd-hybrid"
 
 /* files */
 #define SPATH     BINPATH "/ircd"  /* ircd executable */
