$OpenBSD: patch-include_defaults_h,v 1.4 2012/11/05 23:45:30 brad Exp $
--- include/defaults.h.orig	Fri Sep 28 20:36:05 2012
+++ include/defaults.h	Mon Oct  1 04:49:14 2012
@@ -47,6 +47,11 @@
  * AUTOMODPATH = directory for autoloaded modules
  */
 
+/* users */
+#ifndef IRCD_USER
+#define IRCD_USER   "_ircd-hybrid"
+#endif
+
 /* dirs */
 #define DPATH       PREFIX                                                     
 #define SBINPATH    PREFIX "/sbin/"
@@ -56,8 +61,8 @@
 #define HPATH		    DATADIR "/" PACKAGE "/help/opers"
 #define UHPATH		  DATADIR "/" PACKAGE "/help/users"
 #define AUTOMODPATH	MODPATH "/autoload/"
-#define ETCPATH     SYSCONFDIR
-#define	LOGPATH		  LOCALSTATEDIR "/log"
+#define ETCPATH     SYSCONFDIR "/ircd-hybrid/"
+#define	LOGPATH		  LOCALSTATEDIR "/log/ircd-hybrid"
 
 /* files */
 #define SPATH   SBINPATH "/ircd"                /* ircd executable */
@@ -69,7 +74,7 @@
 #define XPATH   ETCPATH "/xline.conf"           /* xline file */
 #define MPATH   ETCPATH "/ircd.motd"            /* MOTD file */
 #define LPATH   LOGPATH "/ircd.log"             /* ircd logfile */
-#define PPATH   LOCALSTATEDIR "/ircd.pid"             /* pid file */
+#define PPATH   LOCALSTATEDIR "/run/ircd-hybrid/ircd.pid" /* pid file */
 #define LIPATH  ETCPATH "/links.txt"            /* cached links file */
 
 /*
