$OpenBSD: patch-include_defaults_h,v 1.7 2014/05/08 14:36:49 brad Exp $
--- include/defaults.h.orig	Sun Apr 20 11:06:23 2014
+++ include/defaults.h	Tue Apr 22 22:15:23 2014
@@ -48,15 +48,20 @@
  * AUTOMODPATH = directory for autoloaded modules
  */
 
+/* users */
+#ifndef IRCD_USER
+#define IRCD_USER   "_ircd-hybrid"
+#endif
+
 /* dirs */
 #define DPATH        PREFIX
 #define BINPATH      PREFIX "/bin/"
 #define MODPATH      LIBDIR "/" PACKAGE "/modules/"
 #define HPATH        DATADIR "/" PACKAGE "/help"
 #define AUTOMODPATH  MODPATH "/autoload/"
-#define ETCPATH      SYSCONFDIR
-#define LOGPATH      LOCALSTATEDIR "/log"
-#define RUNPATH      LOCALSTATEDIR "/run"
+#define ETCPATH      SYSCONFDIR "/ircd-hybrid/"
+#define LOGPATH      LOCALSTATEDIR "/log/ircd-hybrid"
+#define RUNPATH      LOCALSTATEDIR "/run/ircd-hybrid"
 
 /* files */
 #define SPATH     BINPATH "/ircd"  /* ircd executable */
