$OpenBSD: patch-include_defaults_h,v 1.1.1.1 2009/01/28 23:35:07 bernd Exp $
--- include/defaults.h.orig	Wed Feb 28 05:17:43 2007
+++ include/defaults.h	Tue Jan 27 21:23:01 2009
@@ -50,11 +50,11 @@
 /* dirs */
 #define DPATH       IRCD_PREFIX                                                     
 #define BINPATH     IRCD_PREFIX "/bin/"
-#define MSGPATH     IRCD_PREFIX "/messages/"
-#define ETCPATH     IRCD_PREFIX "/etc"
-#define LOGPATH     IRCD_PREFIX "/logs"
-#define MODPATH     IRCD_PREFIX "/modules/"
-#define AUTOMODPATH IRCD_PREFIX "/modules/autoload/"
+#define MSGPATH     IRCD_PREFIX "/share/ircd-hybrid/messages/"
+#define ETCPATH     "${SYSCONFDIR}/ircd-hybrid"
+#define LOGPATH     "/var/log/ircd-hybrid"
+#define MODPATH     IRCD_PREFIX "/lib/ircd-hybrid/modules/"
+#define AUTOMODPATH IRCD_PREFIX "/lib/ircd-hybrid/modules/autoload/"
 
 /* files */
 #define SPATH   BINPATH "/ircd"                 /* ircd executable */
@@ -70,7 +70,7 @@
 #define RKPATH  ETCPATH "/rkline.conf"
 #define MPATH   ETCPATH "/ircd.motd"            /* MOTD file */
 #define LPATH   LOGPATH "/ircd.log"             /* ircd logfile */
-#define PPATH   ETCPATH "/ircd.pid"             /* pid file */
+#define PPATH   "/var/run/ircd/ircd.pid"        /* pid file */
 #define OPATH   ETCPATH "/opers.motd"           /* oper MOTD file */
 #define LIPATH  ETCPATH "/links.txt"            /* cached links file */
 
